<routes>
  <trip id="veh_0" depart="1.5" from="D4D3" to="A3B3" departSpeed="max"/>
  <trip id="veh_1" depart="2.1" from="B4B3" to="C0C1" departSpeed="max"/>
  <trip id="veh_2" depart="6.1" from="C4C3" to="E3D3" departSpeed="max"/>
  <trip id="veh_3" depart="9.6" from="C4C3" to="C0C1" departSpeed="max"/>
  <trip id="veh_4" depart="12.8" from="E3D3" to="A2B2" departSpeed="max"/>
  <trip id="veh_5" depart="20.0" from="B0B1" to="A2B2" departSpeed="max"/>
  <trip id="veh_6" depart="21.2" from="C4C3" to="D0D1" departSpeed="max"/>
  <trip id="veh_7" depart="23.4" from="E2D2" to="A1B1" departSpeed="max"/>
  <trip id="veh_8" depart="28.2" from="B4B3" to="E2D2" departSpeed="max"/>
  <trip id="veh_9" depart="34.8" from="B0B1" to="E3D3" departSpeed="max"/>
  <trip id="veh_10" depart="36.5" from="E1D1" to="C4C3" departSpeed="max"/>
  <trip id="veh_11" depart="41.3" from="C0C1" to="D4D3" departSpeed="max"/>
  <trip id="veh_12" depart="50.9" from="A2B2" to="D0D1" departSpeed="max"/>
  <trip id="veh_13" depart="69.8" from="C4C3" to="D0D1" departSpeed="max"/>
  <trip id="veh_14" depart="70.1" from="D4D3" to="B0B1" departSpeed="max"/>
  <trip id="veh_15" depart="73.4" from="E3D3" to="D0D1" departSpeed="max"/>
  <trip id="veh_16" depart="85.2" from="E3D3" to="A1B1" departSpeed="max"/>
  <trip id="veh_17" depart="87.9" from="A3B3" to="D0D1" departSpeed="max"/>
  <trip id="veh_18" depart="89.2" from="B4B3" to="D0D1" departSpeed="max"/>
  <trip id="veh_19" depart="90.0" from="A1B1" to="C4C3" departSpeed="max"/>
  <trip id="veh_20" depart="92.4" from="C0C1" to="C4C3" departSpeed="max"/>
  <trip id="veh_21" depart="95.5" from="E3D3" to="C0C1" departSpeed="max"/>
  <trip id="veh_22" depart="97.1" from="E1D1" to="B4B3" departSpeed="max"/>
  <trip id="veh_23" depart="97.6" from="D0D1" to="A3B3" departSpeed="max"/>
  <trip id="veh_24" depart="103.3" from="E1D1" to="C4C3" departSpeed="max"/>
  <trip id="veh_25" depart="104.5" from="C0C1" to="E3D3" departSpeed="max"/>
  <trip id="veh_26" depart="107.3" from="C0C1" to="E3D3" departSpeed="max"/>
  <trip id="veh_27" depart="115.6" from="A2B2" to="C0C1" departSpeed="max"/>
  <trip id="veh_28" depart="143.5" from="D0D1" to="C4C3" departSpeed="max"/>
  <trip id="veh_29" depart="144.8" from="C0C1" to="E1D1" departSpeed="max"/>
  <trip id="veh_30" depart="165.0" from="B4B3" to="B0B1" departSpeed="max"/>
  <trip id="veh_31" depart="169.6" from="D4D3" to="E2D2" departSpeed="max"/>
  <trip id="veh_32" depart="180.8" from="B0B1" to="D4D3" departSpeed="max"/>
  <trip id="veh_33" depart="181.0" from="A3B3" to="D4D3" departSpeed="max"/>
  <trip id="veh_34" depart="182.1" from="A3B3" to="E3D3" departSpeed="max"/>
  <trip id="veh_35" depart="185.0" from="B4B3" to="A3B3" departSpeed="max"/>
  <trip id="veh_36" depart="193.0" from="E3D3" to="A1B1" departSpeed="max"/>
  <trip id="veh_37" depart="205.8" from="E3D3" to="B4B3" departSpeed="max"/>
  <trip id="veh_38" depart="208.5" from="A2B2" to="E2D2" departSpeed="max"/>
  <trip id="veh_39" depart="211.1" from="D4D3" to="E1D1" departSpeed="max"/>
  <trip id="veh_40" depart="228.7" from="C4C3" to="A3B3" departSpeed="max"/>
  <trip id="veh_41" depart="231.2" from="E1D1" to="D0D1" departSpeed="max"/>
  <trip id="veh_42" depart="249.2" from="D0D1" to="D4D3" departSpeed="max"/>
  <trip id="veh_43" depart="251.9" from="E2D2" to="A2B2" departSpeed="max"/>
  <trip id="veh_44" depart="255.1" from="D0D1" to="C4C3" departSpeed="max"/>
  <trip id="veh_45" depart="255.6" from="B4B3" to="B0B1" departSpeed="max"/>
  <trip id="veh_46" depart="257.1" from="E3D3" to="A3B3" departSpeed="max"/>
  <trip id="veh_47" depart="261.2" from="D0D1" to="A2B2" departSpeed="max"/>
  <trip id="veh_48" depart="262.2" from="B0B1" to="A2B2" departSpeed="max"/>
  <trip id="veh_49" depart="263.7" from="C0C1" to="E3D3" departSpeed="max"/>
  <trip id="veh_50" depart="266.7" from="D0D1" to="C4C3" departSpeed="max"/>
  <trip id="veh_51" depart="270.2" from="B0B1" to="D4D3" departSpeed="max"/>
  <trip id="veh_52" depart="270.9" from="A3B3" to="D4D3" departSpeed="max"/>
  <trip id="veh_53" depart="273.6" from="E3D3" to="B0B1" departSpeed="max"/>
  <trip id="veh_54" depart="278.9" from="D0D1" to="E2D2" departSpeed="max"/>
  <trip id="veh_55" depart="287.3" from="A1B1" to="B0B1" departSpeed="max"/>
  <trip id="veh_56" depart="288.4" from="C0C1" to="B4B3" departSpeed="max"/>
  <trip id="veh_57" depart="289.6" from="E2D2" to="C4C3" departSpeed="max"/>
  <trip id="veh_58" depart="294.9" from="D0D1" to="A3B3" departSpeed="max"/>
  <trip id="veh_59" depart="305.3" from="D4D3" to="B0B1" departSpeed="max"/>
  <trip id="veh_60" depart="308.2" from="C4C3" to="B0B1" departSpeed="max"/>
  <trip id="veh_61" depart="308.4" from="E2D2" to="C0C1" departSpeed="max"/>
  <trip id="veh_62" depart="312.0" from="B0B1" to="D4D3" departSpeed="max"/>
  <trip id="veh_63" depart="313.0" from="B4B3" to="E2D2" departSpeed="max"/>
  <trip id="veh_64" depart="327.3" from="A2B2" to="B0B1" departSpeed="max"/>
  <trip id="veh_65" depart="328.5" from="A1B1" to="C4C3" departSpeed="max"/>
  <trip id="veh_66" depart="328.8" from="E3D3" to="B4B3" departSpeed="max"/>
  <trip id="veh_67" depart="332.3" from="E3D3" to="B0B1" departSpeed="max"/>
  <trip id="veh_68" depart="333.9" from="E2D2" to="A1B1" departSpeed="max"/>
  <trip id="veh_69" depart="335.0" from="A2B2" to="E1D1" departSpeed="max"/>
  <trip id="veh_70" depart="335.6" from="B0B1" to="B4B3" departSpeed="max"/>
  <trip id="veh_71" depart="348.2" from="A1B1" to="B4B3" departSpeed="max"/>
  <trip id="veh_72" depart="349.0" from="E3D3" to="C0C1" departSpeed="max"/>
  <trip id="veh_73" depart="354.3" from="B4B3" to="A1B1" departSpeed="max"/>
  <trip id="veh_74" depart="361.9" from="A3B3" to="E1D1" departSpeed="max"/>
  <trip id="veh_75" depart="363.6" from="D4D3" to="E3D3" departSpeed="max"/>
  <trip id="veh_76" depart="366.8" from="E3D3" to="B0B1" departSpeed="max"/>
  <trip id="veh_77" depart="370.1" from="C0C1" to="D4D3" departSpeed="max"/>
  <trip id="veh_78" depart="379.9" from="A2B2" to="E2D2" departSpeed="max"/>
  <trip id="veh_79" depart="383.7" from="A2B2" to="D0D1" departSpeed="max"/>
  <trip id="veh_80" depart="385.3" from="A1B1" to="E2D2" departSpeed="max"/>
  <trip id="veh_81" depart="389.1" from="A1B1" to="C0C1" departSpeed="max"/>
  <trip id="veh_82" depart="389.2" from="C4C3" to="E3D3" departSpeed="max"/>
  <trip id="veh_83" depart="390.2" from="D0D1" to="E3D3" departSpeed="max"/>
  <trip id="veh_84" depart="394.7" from="A3B3" to="D0D1" departSpeed="max"/>
  <trip id="veh_85" depart="401.6" from="E2D2" to="A2B2" departSpeed="max"/>
  <trip id="veh_86" depart="412.3" from="C4C3" to="C0C1" departSpeed="max"/>
  <trip id="veh_87" depart="415.2" from="A2B2" to="C0C1" departSpeed="max"/>
  <trip id="veh_88" depart="415.5" from="C4C3" to="A1B1" departSpeed="max"/>
  <trip id="veh_89" depart="422.9" from="B0B1" to="E1D1" departSpeed="max"/>
  <trip id="veh_90" depart="426.4" from="A2B2" to="E1D1" departSpeed="max"/>
  <trip id="veh_91" depart="430.4" from="B0B1" to="D4D3" departSpeed="max"/>
  <trip id="veh_92" depart="431.6" from="D4D3" to="E1D1" departSpeed="max"/>
  <trip id="veh_93" depart="434.4" from="D0D1" to="A1B1" departSpeed="max"/>
  <trip id="veh_94" depart="435.6" from="C0C1" to="B4B3" departSpeed="max"/>
  <trip id="veh_95" depart="435.8" from="E1D1" to="D0D1" departSpeed="max"/>
  <trip id="veh_96" depart="437.1" from="A2B2" to="D0D1" departSpeed="max"/>
  <trip id="veh_97" depart="447.7" from="D4D3" to="A1B1" departSpeed="max"/>
  <trip id="veh_98" depart="454.4" from="A3B3" to="E3D3" departSpeed="max"/>
  <trip id="veh_99" depart="454.6" from="B0B1" to="B4B3" departSpeed="max"/>
  <trip id="veh_100" depart="458.2" from="C4C3" to="A2B2" departSpeed="max"/>
  <trip id="veh_101" depart="458.8" from="E3D3" to="D4D3" departSpeed="max"/>
  <trip id="veh_102" depart="459.5" from="E3D3" to="D4D3" departSpeed="max"/>
  <trip id="veh_103" depart="462.2" from="A3B3" to="E3D3" departSpeed="max"/>
  <trip id="veh_104" depart="476.3" from="C0C1" to="A2B2" departSpeed="max"/>
  <trip id="veh_105" depart="483.4" from="D4D3" to="A2B2" departSpeed="max"/>
  <trip id="veh_106" depart="488.5" from="A1B1" to="E1D1" departSpeed="max"/>
  <trip id="veh_107" depart="498.1" from="A3B3" to="B4B3" departSpeed="max"/>
  <trip id="veh_108" depart="533.1" from="C0C1" to="A3B3" departSpeed="max"/>
  <trip id="veh_109" depart="537.1" from="B4B3" to="A3B3" departSpeed="max"/>
  <trip id="veh_110" depart="548.6" from="B0B1" to="A2B2" departSpeed="max"/>
  <trip id="veh_111" depart="550.2" from="D0D1" to="E3D3" departSpeed="max"/>
  <trip id="veh_112" depart="556.4" from="E2D2" to="D0D1" departSpeed="max"/>
  <trip id="veh_113" depart="557.3" from="E2D2" to="B0B1" departSpeed="max"/>
  <trip id="veh_114" depart="559.7" from="C0C1" to="C4C3" departSpeed="max"/>
  <trip id="veh_115" depart="565.4" from="D0D1" to="E2D2" departSpeed="max"/>
  <trip id="veh_116" depart="566.8" from="D0D1" to="A3B3" departSpeed="max"/>
  <trip id="veh_117" depart="567.9" from="B4B3" to="E2D2" departSpeed="max"/>
  <trip id="veh_118" depart="570.2" from="A2B2" to="E1D1" departSpeed="max"/>
  <trip id="veh_119" depart="588.2" from="A2B2" to="D0D1" departSpeed="max"/>
  <trip id="veh_120" depart="594.2" from="D0D1" to="A3B3" departSpeed="max"/>
  <trip id="veh_121" depart="597.3" from="A2B2" to="B0B1" departSpeed="max"/>
  <trip id="veh_122" depart="598.7" from="E3D3" to="A2B2" departSpeed="max"/>
  <trip id="veh_123" depart="604.0" from="B0B1" to="C4C3" departSpeed="max"/>
  <trip id="veh_124" depart="610.9" from="E2D2" to="A3B3" departSpeed="max"/>
  <trip id="veh_125" depart="616.1" from="A2B2" to="C0C1" departSpeed="max"/>
  <trip id="veh_126" depart="625.7" from="E2D2" to="A1B1" departSpeed="max"/>
  <trip id="veh_127" depart="633.2" from="A3B3" to="D0D1" departSpeed="max"/>
  <trip id="veh_128" depart="642.8" from="C4C3" to="E3D3" departSpeed="max"/>
  <trip id="veh_129" depart="643.1" from="E1D1" to="A1B1" departSpeed="max"/>
  <trip id="veh_130" depart="646.0" from="E1D1" to="D0D1" departSpeed="max"/>
  <trip id="veh_131" depart="653.4" from="A1B1" to="D0D1" departSpeed="max"/>
  <trip id="veh_132" depart="654.6" from="D0D1" to="E3D3" departSpeed="max"/>
  <trip id="veh_133" depart="663.7" from="D4D3" to="E2D2" departSpeed="max"/>
  <trip id="veh_134" depart="666.5" from="A2B2" to="C0C1" departSpeed="max"/>
  <trip id="veh_135" depart="669.0" from="D4D3" to="A1B1" departSpeed="max"/>
  <trip id="veh_136" depart="675.3" from="A2B2" to="C0C1" departSpeed="max"/>
  <trip id="veh_137" depart="684.8" from="A2B2" to="C4C3" departSpeed="max"/>
  <trip id="veh_138" depart="685.5" from="A3B3" to="D0D1" departSpeed="max"/>
  <trip id="veh_139" depart="693.3" from="D0D1" to="E3D3" departSpeed="max"/>
  <trip id="veh_140" depart="695.3" from="A2B2" to="E3D3" departSpeed="max"/>
  <trip id="veh_141" depart="698.8" from="D4D3" to="E2D2" departSpeed="max"/>
  <trip id="veh_142" depart="700.0" from="A2B2" to="B4B3" departSpeed="max"/>
  <trip id="veh_143" depart="715.8" from="D0D1" to="B4B3" departSpeed="max"/>
  <trip id="veh_144" depart="716.9" from="E1D1" to="B4B3" departSpeed="max"/>
  <trip id="veh_145" depart="717.7" from="D4D3" to="D0D1" departSpeed="max"/>
  <trip id="veh_146" depart="724.1" from="C4C3" to="E2D2" departSpeed="max"/>
  <trip id="veh_147" depart="732.8" from="D4D3" to="E3D3" departSpeed="max"/>
  <trip id="veh_148" depart="733.0" from="B4B3" to="E2D2" departSpeed="max"/>
  <trip id="veh_149" depart="735.3" from="C0C1" to="A2B2" departSpeed="max"/>
  <trip id="veh_150" depart="744.6" from="E2D2" to="A1B1" departSpeed="max"/>
  <trip id="veh_151" depart="748.0" from="E2D2" to="C4C3" departSpeed="max"/>
  <trip id="veh_152" depart="754.2" from="B4B3" to="D0D1" departSpeed="max"/>
  <trip id="veh_153" depart="756.3" from="A2B2" to="E3D3" departSpeed="max"/>
  <trip id="veh_154" depart="759.5" from="B4B3" to="E3D3" departSpeed="max"/>
  <trip id="veh_155" depart="759.7" from="A3B3" to="E3D3" departSpeed="max"/>
  <trip id="veh_156" depart="762.0" from="B4B3" to="E2D2" departSpeed="max"/>
  <trip id="veh_157" depart="762.5" from="E2D2" to="C0C1" departSpeed="max"/>
  <trip id="veh_158" depart="763.6" from="E1D1" to="B4B3" departSpeed="max"/>
  <trip id="veh_159" depart="767.4" from="A3B3" to="D0D1" departSpeed="max"/>
  <trip id="veh_160" depart="769.3" from="A3B3" to="E2D2" departSpeed="max"/>
  <trip id="veh_161" depart="769.5" from="E3D3" to="A2B2" departSpeed="max"/>
  <trip id="veh_162" depart="771.3" from="E3D3" to="D4D3" departSpeed="max"/>
  <trip id="veh_163" depart="779.0" from="E3D3" to="A2B2" departSpeed="max"/>
  <trip id="veh_164" depart="784.7" from="D4D3" to="E3D3" departSpeed="max"/>
  <trip id="veh_165" depart="787.1" from="D0D1" to="E2D2" departSpeed="max"/>
  <trip id="veh_166" depart="789.6" from="B4B3" to="D0D1" departSpeed="max"/>
  <trip id="veh_167" depart="789.9" from="B0B1" to="E2D2" departSpeed="max"/>
  <trip id="veh_168" depart="792.8" from="C0C1" to="E2D2" departSpeed="max"/>
  <trip id="veh_169" depart="793.6" from="B4B3" to="B0B1" departSpeed="max"/>
  <trip id="veh_170" depart="793.9" from="E2D2" to="A1B1" departSpeed="max"/>
  <trip id="veh_171" depart="797.7" from="D4D3" to="E1D1" departSpeed="max"/>
  <trip id="veh_172" depart="800.8" from="A2B2" to="E1D1" departSpeed="max"/>
  <trip id="veh_173" depart="803.6" from="C0C1" to="D4D3" departSpeed="max"/>
  <trip id="veh_174" depart="808.7" from="B0B1" to="A1B1" departSpeed="max"/>
  <trip id="veh_175" depart="808.9" from="B0B1" to="C4C3" departSpeed="max"/>
  <trip id="veh_176" depart="812.5" from="B4B3" to="E2D2" departSpeed="max"/>
  <trip id="veh_177" depart="818.9" from="B0B1" to="B4B3" departSpeed="max"/>
  <trip id="veh_178" depart="819.3" from="A3B3" to="D0D1" departSpeed="max"/>
  <trip id="veh_179" depart="820.4" from="E1D1" to="B4B3" departSpeed="max"/>
  <trip id="veh_180" depart="824.2" from="D0D1" to="E1D1" departSpeed="max"/>
  <trip id="veh_181" depart="824.6" from="C4C3" to="D0D1" departSpeed="max"/>
  <trip id="veh_182" depart="828.4" from="A1B1" to="C0C1" departSpeed="max"/>
  <trip id="veh_183" depart="832.5" from="E3D3" to="D4D3" departSpeed="max"/>
  <trip id="veh_184" depart="833.3" from="B0B1" to="A2B2" departSpeed="max"/>
  <trip id="veh_185" depart="838.0" from="A1B1" to="B0B1" departSpeed="max"/>
  <trip id="veh_186" depart="846.7" from="B0B1" to="E1D1" departSpeed="max"/>
  <trip id="veh_187" depart="856.8" from="D4D3" to="D0D1" departSpeed="max"/>
  <trip id="veh_188" depart="859.3" from="E3D3" to="B0B1" departSpeed="max"/>
  <trip id="veh_189" depart="861.5" from="A3B3" to="C4C3" departSpeed="max"/>
  <trip id="veh_190" depart="877.4" from="B0B1" to="A3B3" departSpeed="max"/>
  <trip id="veh_191" depart="877.9" from="B4B3" to="E3D3" departSpeed="max"/>
  <trip id="veh_192" depart="878.3" from="A2B2" to="C4C3" departSpeed="max"/>
  <trip id="veh_193" depart="881.4" from="C0C1" to="A2B2" departSpeed="max"/>
  <trip id="veh_194" depart="886.4" from="B0B1" to="C4C3" departSpeed="max"/>
  <trip id="veh_195" depart="887.9" from="A3B3" to="D0D1" departSpeed="max"/>
  <trip id="veh_196" depart="890.1" from="E1D1" to="A2B2" departSpeed="max"/>
  <trip id="veh_197" depart="895.2" from="E3D3" to="C4C3" departSpeed="max"/>
  <trip id="veh_198" depart="897.1" from="D4D3" to="B0B1" departSpeed="max"/>
  <trip id="veh_199" depart="898.3" from="A3B3" to="E2D2" departSpeed="max"/>
  <trip id="veh_200" depart="899.3" from="E1D1" to="B0B1" departSpeed="max"/>
  <trip id="veh_201" depart="901.3" from="C0C1" to="D4D3" departSpeed="max"/>
  <trip id="veh_202" depart="905.1" from="C0C1" to="E1D1" departSpeed="max"/>
  <trip id="veh_203" depart="908.2" from="E2D2" to="A2B2" departSpeed="max"/>
  <trip id="veh_204" depart="917.0" from="A3B3" to="E2D2" departSpeed="max"/>
  <trip id="veh_205" depart="933.1" from="C4C3" to="E2D2" departSpeed="max"/>
  <trip id="veh_206" depart="943.0" from="C4C3" to="B0B1" departSpeed="max"/>
  <trip id="veh_207" depart="945.9" from="C0C1" to="E3D3" departSpeed="max"/>
  <trip id="veh_208" depart="948.2" from="A3B3" to="C0C1" departSpeed="max"/>
  <trip id="veh_209" depart="950.3" from="E3D3" to="C4C3" departSpeed="max"/>
  <trip id="veh_210" depart="953.6" from="A2B2" to="D0D1" departSpeed="max"/>
  <trip id="veh_211" depart="954.2" from="D0D1" to="E3D3" departSpeed="max"/>
  <trip id="veh_212" depart="954.7" from="C0C1" to="E2D2" departSpeed="max"/>
  <trip id="veh_213" depart="954.7" from="D4D3" to="E2D2" departSpeed="max"/>
  <trip id="veh_214" depart="955.7" from="A1B1" to="D4D3" departSpeed="max"/>
  <trip id="veh_215" depart="960.5" from="D4D3" to="E3D3" departSpeed="max"/>
  <trip id="veh_216" depart="960.6" from="A1B1" to="D4D3" departSpeed="max"/>
  <trip id="veh_217" depart="961.1" from="B0B1" to="E1D1" departSpeed="max"/>
  <trip id="veh_218" depart="963.9" from="C4C3" to="E2D2" departSpeed="max"/>
  <trip id="veh_219" depart="966.2" from="A3B3" to="E1D1" departSpeed="max"/>
  <trip id="veh_220" depart="970.2" from="C4C3" to="E2D2" departSpeed="max"/>
  <trip id="veh_221" depart="972.3" from="E3D3" to="A2B2" departSpeed="max"/>
  <trip id="veh_222" depart="975.3" from="B4B3" to="A1B1" departSpeed="max"/>
  <trip id="veh_223" depart="978.2" from="E2D2" to="D4D3" departSpeed="max"/>
  <trip id="veh_224" depart="980.5" from="A2B2" to="C0C1" departSpeed="max"/>
  <trip id="veh_225" depart="984.3" from="E3D3" to="A2B2" departSpeed="max"/>
  <trip id="veh_226" depart="987.5" from="B0B1" to="E1D1" departSpeed="max"/>
  <trip id="veh_227" depart="988.6" from="A2B2" to="B0B1" departSpeed="max"/>
  <trip id="veh_228" depart="990.1" from="B4B3" to="D0D1" departSpeed="max"/>
  <trip id="veh_229" depart="994.5" from="D0D1" to="C4C3" departSpeed="max"/>
  <trip id="veh_230" depart="994.6" from="C0C1" to="B4B3" departSpeed="max"/>
  <trip id="veh_231" depart="996.0" from="E2D2" to="A3B3" departSpeed="max"/>
  <trip id="veh_232" depart="1000.7" from="E1D1" to="B0B1" departSpeed="max"/>
  <trip id="veh_233" depart="1002.8" from="A2B2" to="E3D3" departSpeed="max"/>
  <trip id="veh_234" depart="1004.8" from="D0D1" to="E1D1" departSpeed="max"/>
  <trip id="veh_235" depart="1018.8" from="A1B1" to="C0C1" departSpeed="max"/>
  <trip id="veh_236" depart="1028.6" from="D0D1" to="E2D2" departSpeed="max"/>
  <trip id="veh_237" depart="1032.9" from="A1B1" to="E2D2" departSpeed="max"/>
  <trip id="veh_238" depart="1037.6" from="C0C1" to="E3D3" departSpeed="max"/>
  <trip id="veh_239" depart="1039.0" from="E3D3" to="D4D3" departSpeed="max"/>
  <trip id="veh_240" depart="1041.8" from="E2D2" to="D4D3" departSpeed="max"/>
  <trip id="veh_241" depart="1048.5" from="A1B1" to="E3D3" departSpeed="max"/>
  <trip id="veh_242" depart="1064.4" from="E1D1" to="C4C3" departSpeed="max"/>
  <trip id="veh_243" depart="1068.1" from="E2D2" to="A3B3" departSpeed="max"/>
  <trip id="veh_244" depart="1074.4" from="A2B2" to="E1D1" departSpeed="max"/>
  <trip id="veh_245" depart="1077.8" from="B4B3" to="A3B3" departSpeed="max"/>
  <trip id="veh_246" depart="1080.0" from="A3B3" to="D0D1" departSpeed="max"/>
  <trip id="veh_247" depart="1081.2" from="E1D1" to="D4D3" departSpeed="max"/>
  <trip id="veh_248" depart="1083.4" from="D4D3" to="E1D1" departSpeed="max"/>
  <trip id="veh_249" depart="1093.8" from="A1B1" to="E1D1" departSpeed="max"/>
  <trip id="veh_250" depart="1098.7" from="D0D1" to="B4B3" departSpeed="max"/>
  <trip id="veh_251" depart="1099.4" from="D4D3" to="D0D1" departSpeed="max"/>
  <trip id="veh_252" depart="1102.3" from="D4D3" to="A2B2" departSpeed="max"/>
  <trip id="veh_253" depart="1107.1" from="C0C1" to="A2B2" departSpeed="max"/>
  <trip id="veh_254" depart="1107.4" from="A1B1" to="C4C3" departSpeed="max"/>
  <trip id="veh_255" depart="1109.7" from="B0B1" to="E2D2" departSpeed="max"/>
  <trip id="veh_256" depart="1113.4" from="D4D3" to="E2D2" departSpeed="max"/>
  <trip id="veh_257" depart="1122.2" from="C0C1" to="B4B3" departSpeed="max"/>
  <trip id="veh_258" depart="1123.0" from="A2B2" to="E1D1" departSpeed="max"/>
  <trip id="veh_259" depart="1129.2" from="C4C3" to="A1B1" departSpeed="max"/>
  <trip id="veh_260" depart="1130.1" from="A2B2" to="C4C3" departSpeed="max"/>
  <trip id="veh_261" depart="1132.3" from="B4B3" to="B0B1" departSpeed="max"/>
  <trip id="veh_262" depart="1132.8" from="B0B1" to="B4B3" departSpeed="max"/>
  <trip id="veh_263" depart="1135.6" from="C0C1" to="E2D2" departSpeed="max"/>
  <trip id="veh_264" depart="1138.2" from="A2B2" to="D0D1" departSpeed="max"/>
  <trip id="veh_265" depart="1151.0" from="E1D1" to="D0D1" departSpeed="max"/>
  <trip id="veh_266" depart="1160.4" from="A2B2" to="C4C3" departSpeed="max"/>
  <trip id="veh_267" depart="1163.8" from="C0C1" to="E3D3" departSpeed="max"/>
  <trip id="veh_268" depart="1167.0" from="A2B2" to="B0B1" departSpeed="max"/>
  <trip id="veh_269" depart="1176.6" from="C0C1" to="C4C3" departSpeed="max"/>
  <trip id="veh_270" depart="1181.7" from="A3B3" to="D4D3" departSpeed="max"/>
  <trip id="veh_271" depart="1187.3" from="B4B3" to="A2B2" departSpeed="max"/>
  <trip id="veh_272" depart="1188.7" from="D4D3" to="A3B3" departSpeed="max"/>
  <trip id="veh_273" depart="1190.8" from="E1D1" to="C4C3" departSpeed="max"/>
  <trip id="veh_274" depart="1195.9" from="D4D3" to="E2D2" departSpeed="max"/>
  <trip id="veh_275" depart="1199.9" from="E3D3" to="A3B3" departSpeed="max"/>
  <trip id="veh_276" depart="1206.7" from="A1B1" to="B4B3" departSpeed="max"/>
  <trip id="veh_277" depart="1210.1" from="C4C3" to="E3D3" departSpeed="max"/>
  <trip id="veh_278" depart="1211.7" from="E2D2" to="D4D3" departSpeed="max"/>
  <trip id="veh_279" depart="1217.1" from="D0D1" to="A3B3" departSpeed="max"/>
  <trip id="veh_280" depart="1221.5" from="D0D1" to="D4D3" departSpeed="max"/>
  <trip id="veh_281" depart="1224.9" from="C4C3" to="A1B1" departSpeed="max"/>
  <trip id="veh_282" depart="1225.2" from="A2B2" to="D0D1" departSpeed="max"/>
  <trip id="veh_283" depart="1228.4" from="A3B3" to="C4C3" departSpeed="max"/>
  <trip id="veh_284" depart="1249.9" from="E3D3" to="B0B1" departSpeed="max"/>
  <trip id="veh_285" depart="1252.7" from="E3D3" to="D4D3" departSpeed="max"/>
  <trip id="veh_286" depart="1259.9" from="B4B3" to="D0D1" departSpeed="max"/>
  <trip id="veh_287" depart="1266.3" from="A1B1" to="B0B1" departSpeed="max"/>
  <trip id="veh_288" depart="1302.4" from="B0B1" to="A2B2" departSpeed="max"/>
  <trip id="veh_289" depart="1311.2" from="D0D1" to="A3B3" departSpeed="max"/>
  <trip id="veh_290" depart="1313.4" from="A3B3" to="E1D1" departSpeed="max"/>
  <trip id="veh_291" depart="1330.3" from="D4D3" to="E2D2" departSpeed="max"/>
  <trip id="veh_292" depart="1332.7" from="B4B3" to="E2D2" departSpeed="max"/>
  <trip id="veh_293" depart="1334.1" from="D0D1" to="C4C3" departSpeed="max"/>
  <trip id="veh_294" depart="1362.7" from="D4D3" to="A2B2" departSpeed="max"/>
  <trip id="veh_295" depart="1364.3" from="E2D2" to="D0D1" departSpeed="max"/>
  <trip id="veh_296" depart="1364.4" from="C4C3" to="A3B3" departSpeed="max"/>
  <trip id="veh_297" depart="1364.8" from="C0C1" to="E2D2" departSpeed="max"/>
  <trip id="veh_298" depart="1364.9" from="C4C3" to="A1B1" departSpeed="max"/>
  <trip id="veh_299" depart="1366.0" from="C0C1" to="A2B2" departSpeed="max"/>
  <trip id="veh_300" depart="1369.4" from="E2D2" to="A1B1" departSpeed="max"/>
  <trip id="veh_301" depart="1373.8" from="A2B2" to="C0C1" departSpeed="max"/>
  <trip id="veh_302" depart="1380.9" from="B0B1" to="E1D1" departSpeed="max"/>
  <trip id="veh_303" depart="1386.7" from="D0D1" to="D4D3" departSpeed="max"/>
  <trip id="veh_304" depart="1418.5" from="A3B3" to="D0D1" departSpeed="max"/>
  <trip id="veh_305" depart="1424.3" from="E1D1" to="D0D1" departSpeed="max"/>
  <trip id="veh_306" depart="1424.8" from="E3D3" to="A1B1" departSpeed="max"/>
  <trip id="veh_307" depart="1428.0" from="C0C1" to="A3B3" departSpeed="max"/>
  <trip id="veh_308" depart="1437.8" from="E1D1" to="D4D3" departSpeed="max"/>
  <trip id="veh_309" depart="1438.8" from="E2D2" to="A3B3" departSpeed="max"/>
  <trip id="veh_310" depart="1442.5" from="C4C3" to="D0D1" departSpeed="max"/>
  <trip id="veh_311" depart="1443.7" from="C4C3" to="A2B2" departSpeed="max"/>
  <trip id="veh_312" depart="1448.6" from="A3B3" to="D0D1" departSpeed="max"/>
  <trip id="veh_313" depart="1449.4" from="A1B1" to="C4C3" departSpeed="max"/>
  <trip id="veh_314" depart="1455.0" from="E1D1" to="A2B2" departSpeed="max"/>
  <trip id="veh_315" depart="1455.5" from="E3D3" to="A2B2" departSpeed="max"/>
  <trip id="veh_316" depart="1463.0" from="A2B2" to="E3D3" departSpeed="max"/>
  <trip id="veh_317" depart="1467.4" from="C4C3" to="E2D2" departSpeed="max"/>
  <trip id="veh_318" depart="1470.2" from="B4B3" to="D0D1" departSpeed="max"/>
  <trip id="veh_319" depart="1487.7" from="E1D1" to="C0C1" departSpeed="max"/>
  <trip id="veh_320" depart="1492.0" from="D0D1" to="E2D2" departSpeed="max"/>
  <trip id="veh_321" depart="1493.8" from="A3B3" to="E2D2" departSpeed="max"/>
  <trip id="veh_322" depart="1496.8" from="E1D1" to="A3B3" departSpeed="max"/>
  <trip id="veh_323" depart="1508.5" from="C4C3" to="D0D1" departSpeed="max"/>
  <trip id="veh_324" depart="1509.2" from="D0D1" to="A1B1" departSpeed="max"/>
  <trip id="veh_325" depart="1512.5" from="E2D2" to="C4C3" departSpeed="max"/>
  <trip id="veh_326" depart="1513.6" from="A2B2" to="E2D2" departSpeed="max"/>
  <trip id="veh_327" depart="1518.8" from="C4C3" to="A2B2" departSpeed="max"/>
  <trip id="veh_328" depart="1518.9" from="A2B2" to="D4D3" departSpeed="max"/>
  <trip id="veh_329" depart="1519.8" from="E1D1" to="D0D1" departSpeed="max"/>
  <trip id="veh_330" depart="1522.8" from="B4B3" to="A2B2" departSpeed="max"/>
  <trip id="veh_331" depart="1523.3" from="D4D3" to="A1B1" departSpeed="max"/>
  <trip id="veh_332" depart="1524.9" from="C4C3" to="A3B3" departSpeed="max"/>
  <trip id="veh_333" depart="1524.9" from="E2D2" to="B4B3" departSpeed="max"/>
  <trip id="veh_334" depart="1530.5" from="C4C3" to="E3D3" departSpeed="max"/>
  <trip id="veh_335" depart="1530.5" from="D0D1" to="E3D3" departSpeed="max"/>
  <trip id="veh_336" depart="1531.8" from="E3D3" to="A3B3" departSpeed="max"/>
  <trip id="veh_337" depart="1539.7" from="A3B3" to="E2D2" departSpeed="max"/>
  <trip id="veh_338" depart="1542.2" from="B4B3" to="E3D3" departSpeed="max"/>
  <trip id="veh_339" depart="1547.6" from="E3D3" to="D0D1" departSpeed="max"/>
  <trip id="veh_340" depart="1551.8" from="D4D3" to="E2D2" departSpeed="max"/>
  <trip id="veh_341" depart="1555.3" from="E3D3" to="D0D1" departSpeed="max"/>
  <trip id="veh_342" depart="1564.4" from="B0B1" to="E2D2" departSpeed="max"/>
  <trip id="veh_343" depart="1565.2" from="C0C1" to="A3B3" departSpeed="max"/>
  <trip id="veh_344" depart="1567.8" from="D0D1" to="E2D2" departSpeed="max"/>
  <trip id="veh_345" depart="1568.1" from="C4C3" to="B0B1" departSpeed="max"/>
  <trip id="veh_346" depart="1569.0" from="A1B1" to="E2D2" departSpeed="max"/>
  <trip id="veh_347" depart="1577.2" from="A3B3" to="B0B1" departSpeed="max"/>
  <trip id="veh_348" depart="1577.2" from="A2B2" to="E1D1" departSpeed="max"/>
  <trip id="veh_349" depart="1585.7" from="E1D1" to="D4D3" departSpeed="max"/>
  <trip id="veh_350" depart="1591.8" from="C4C3" to="C0C1" departSpeed="max"/>
  <trip id="veh_351" depart="1593.8" from="C0C1" to="A1B1" departSpeed="max"/>
  <trip id="veh_352" depart="1595.3" from="E3D3" to="C4C3" departSpeed="max"/>
  <trip id="veh_353" depart="1615.0" from="D0D1" to="A1B1" departSpeed="max"/>
  <trip id="veh_354" depart="1621.8" from="E1D1" to="A1B1" departSpeed="max"/>
  <trip id="veh_355" depart="1621.9" from="D4D3" to="D0D1" departSpeed="max"/>
  <trip id="veh_356" depart="1633.4" from="B0B1" to="A1B1" departSpeed="max"/>
  <trip id="veh_357" depart="1634.5" from="E2D2" to="B4B3" departSpeed="max"/>
  <trip id="veh_358" depart="1637.4" from="A1B1" to="E3D3" departSpeed="max"/>
  <trip id="veh_359" depart="1638.0" from="A1B1" to="B4B3" departSpeed="max"/>
  <trip id="veh_360" depart="1643.3" from="A2B2" to="D4D3" departSpeed="max"/>
  <trip id="veh_361" depart="1649.8" from="A1B1" to="D4D3" departSpeed="max"/>
  <trip id="veh_362" depart="1651.9" from="B0B1" to="E3D3" departSpeed="max"/>
  <trip id="veh_363" depart="1657.1" from="A1B1" to="D4D3" departSpeed="max"/>
  <trip id="veh_364" depart="1661.2" from="E3D3" to="A3B3" departSpeed="max"/>
  <trip id="veh_365" depart="1662.1" from="B4B3" to="E2D2" departSpeed="max"/>
  <trip id="veh_366" depart="1673.0" from="E2D2" to="A2B2" departSpeed="max"/>
  <trip id="veh_367" depart="1674.0" from="E3D3" to="D4D3" departSpeed="max"/>
  <trip id="veh_368" depart="1681.3" from="B0B1" to="E2D2" departSpeed="max"/>
  <trip id="veh_369" depart="1682.6" from="D4D3" to="C0C1" departSpeed="max"/>
  <trip id="veh_370" depart="1689.8" from="B0B1" to="A2B2" departSpeed="max"/>
  <trip id="veh_371" depart="1693.8" from="B0B1" to="E1D1" departSpeed="max"/>
  <trip id="veh_372" depart="1701.6" from="E2D2" to="B4B3" departSpeed="max"/>
  <trip id="veh_373" depart="1703.5" from="D0D1" to="A3B3" departSpeed="max"/>
  <trip id="veh_374" depart="1703.7" from="E2D2" to="B0B1" departSpeed="max"/>
  <trip id="veh_375" depart="1708.8" from="A2B2" to="C0C1" departSpeed="max"/>
  <trip id="veh_376" depart="1710.5" from="E1D1" to="C0C1" departSpeed="max"/>
  <trip id="veh_377" depart="1711.0" from="A1B1" to="B4B3" departSpeed="max"/>
  <trip id="veh_378" depart="1719.8" from="E2D2" to="A1B1" departSpeed="max"/>
  <trip id="veh_379" depart="1740.6" from="C0C1" to="B4B3" departSpeed="max"/>
  <trip id="veh_380" depart="1743.1" from="E3D3" to="B0B1" departSpeed="max"/>
  <trip id="veh_381" depart="1748.3" from="B4B3" to="D0D1" departSpeed="max"/>
  <trip id="veh_382" depart="1749.6" from="E2D2" to="B0B1" departSpeed="max"/>
  <trip id="veh_383" depart="1758.7" from="C4C3" to="A2B2" departSpeed="max"/>