<configuration>
    <input>
        <net-file value="grid.net.xml"/>
        <route-files value="turn_10_routes.xml"/>
    </input>
    <time>
        <begin value="0"/>
        <end value="3600"/>
    </time>
</configuration>